Version 4
SHEET 1 2948 680
WIRE 176 -16 112 -16
WIRE 304 -16 256 -16
WIRE -48 128 -64 128
WIRE 112 128 112 -16
WIRE 112 128 32 128
WIRE 160 128 112 128
WIRE 304 144 304 -16
WIRE 304 144 224 144
WIRE 400 144 304 144
WIRE 160 160 112 160
WIRE -64 176 -64 128
WIRE 2816 224 2816 176
WIRE -240 240 -320 240
WIRE -96 240 -160 240
WIRE -48 240 -96 240
WIRE 112 240 112 160
WIRE 112 240 32 240
WIRE -320 288 -320 240
WIRE -96 288 -96 240
WIRE 112 288 112 240
WIRE 2816 320 2816 304
WIRE 2928 320 2816 320
WIRE 2928 336 2928 320
WIRE 2816 352 2816 320
WIRE 112 400 112 352
WIRE -320 432 -320 368
WIRE -96 432 -96 352
WIRE 304 432 304 144
WIRE 304 432 -96 432
WIRE 2816 464 2816 432
FLAG -320 432 0
FLAG 112 400 0
FLAG -64 176 0
FLAG 2928 336 0
FLAG 192 112 +V
FLAG 192 176 -V
FLAG 2816 176 +V
FLAG 2816 464 -V
FLAG 400 144 Vout
SYMBOL res 48 112 R90
WINDOW 0 0 56 VBottom 2
WINDOW 3 32 56 VTop 2
SYMATTR InstName R1
SYMATTR Value 10k
SYMBOL res 48 224 R90
WINDOW 0 0 56 VBottom 2
WINDOW 3 32 56 VTop 2
SYMATTR InstName R2
SYMATTR Value 5.4k
SYMBOL res -144 224 R90
WINDOW 0 0 56 VBottom 2
WINDOW 3 32 56 VTop 2
SYMATTR InstName R3
SYMATTR Value 5.4k
SYMBOL res 272 -32 R90
WINDOW 0 0 56 VBottom 2
WINDOW 3 32 56 VTop 2
SYMATTR InstName Rf
SYMATTR Value 5.86k
SYMBOL cap -112 288 R0
SYMATTR InstName C1
SYMATTR Value 10n
SYMBOL cap 96 288 R0
SYMATTR InstName C2
SYMATTR Value 10n
SYMBOL voltage -320 272 R0
WINDOW 123 0 0 Left 0
WINDOW 39 0 0 Left 0
SYMATTR InstName V1
SYMATTR Value AC 1
SYMBOL voltage 2816 208 R0
WINDOW 123 0 0 Left 0
WINDOW 39 0 0 Left 0
SYMATTR InstName V2
SYMATTR Value 3.3
SYMBOL voltage 2816 336 R0
WINDOW 123 0 0 Left 0
WINDOW 39 0 0 Left 0
SYMATTR InstName V3
SYMATTR Value 3.3
SYMBOL OpAmps\\LM741 192 80 R0
SYMATTR InstName U1
TEXT -352 456 Left 2 !.ac dec 10 1 5000
